6QH4_Palbociclib_out
     RDKit          3D

 62 66  0  0  0  0  0  0  0  0999 V2000
  -14.8000   24.8500    7.4290 C   0  0  0  0  0  0  0  0  0  0  0  0
  -14.8330   26.1490    8.1810 C   0  0  0  0  0  0  0  0  0  0  0  0
  -14.2460   27.1510    7.7830 O   0  0  0  0  0  0  0  0  0  0  0  0
  -15.5980   26.1910    9.4440 C   0  0  0  0  0  0  0  0  0  0  0  0
  -16.7150   26.9390    9.5530 C   0  0  0  0  0  0  0  0  0  0  0  0
  -17.3390   27.7480    8.4380 C   0  0  0  0  0  0  0  0  0  0  0  0
  -17.4170   26.9800   10.8560 C   0  0  0  0  0  0  0  0  0  0  0  0
  -18.5520   27.7500   11.1060 C   0  0  0  0  0  0  0  0  0  0  0  0
  -19.2090   27.7990   12.2840 N   0  0  0  0  0  0  0  0  0  0  0  0
  -18.6860   27.0320   13.2480 C   0  0  0  0  0  0  0  0  0  0  0  0
  -19.3410   27.0480   14.4990 N   0  0  0  0  0  0  0  0  0  0  0  0
  -18.8650   27.1220   15.8220 C   0  0  0  0  0  0  0  0  0  0  0  0
  -19.4590   26.2940   16.7660 C   0  0  0  0  0  0  0  0  0  0  0  0
  -19.0010   26.3550   18.0770 C   0  0  0  0  0  0  0  0  0  0  0  0
  -17.9730   27.2310   18.4070 C   0  0  0  0  0  0  0  0  0  0  0  0
  -17.4910   27.3160   19.7190 N   0  0  0  0  0  0  0  0  0  0  0  0
  -18.1570   28.1990   20.6820 C   0  0  0  0  0  0  0  0  0  0  0  0
  -17.8210   27.7810   22.1140 C   0  0  0  0  0  0  0  0  0  0  0  0
  -16.3770   27.6940   22.3200 N   0  0  0  0  0  0  0  0  0  0  0  0
  -15.7960   26.7150   21.4020 C   0  0  0  0  0  0  0  0  0  0  0  0
  -16.0570   27.0940   19.9450 C   0  0  0  0  0  0  0  0  0  0  0  0
  -17.4420   28.0180   17.3980 C   0  0  0  0  0  0  0  0  0  0  0  0
  -17.8600   27.9860   16.1140 N   0  0  0  0  0  0  0  0  0  0  0  0
  -17.5990   26.2500   13.1450 N   0  0  0  0  0  0  0  0  0  0  0  0
  -16.9700   26.2360   11.9410 C   0  0  0  0  0  0  0  0  0  0  0  0
  -15.8060   25.4340   11.7880 N   0  0  0  0  0  0  0  0  0  0  0  0
  -15.3740   24.6770   12.9280 C   0  0  0  0  0  0  0  0  0  0  0  0
  -13.8700   24.7420   13.1480 C   0  0  0  0  0  0  0  0  0  0  0  0
  -13.6160   23.5780   14.0910 C   0  0  0  0  0  0  0  0  0  0  0  0
  -14.5880   22.4890   13.6450 C   0  0  0  0  0  0  0  0  0  0  0  0
  -15.6460   23.1830   12.7860 C   0  0  0  0  0  0  0  0  0  0  0  0
  -15.0900   25.3760   10.6000 C   0  0  0  0  0  0  0  0  0  0  0  0
  -14.0710   24.6970   10.4490 O   0  0  0  0  0  0  0  0  0  0  0  0
  -14.7787   24.0135    8.1430 H   0  0  0  0  0  0  0  0  0  0  0  0
  -15.6964   24.7696    6.7965 H   0  0  0  0  0  0  0  0  0  0  0  0
  -13.9007   24.8152    6.7965 H   0  0  0  0  0  0  0  0  0  0  0  0
  -17.9573   28.5496    8.8683 H   0  0  0  0  0  0  0  0  0  0  0  0
  -16.5456   28.1900    7.8173 H   0  0  0  0  0  0  0  0  0  0  0  0
  -17.9680   27.0929    7.8173 H   0  0  0  0  0  0  0  0  0  0  0  0
  -18.9416   28.3641   10.2807 H   0  0  0  0  0  0  0  0  0  0  0  0
  -20.3500   26.9950   14.4090 H   0  0  0  0  0  0  0  0  0  0  0  0
  -20.2709   25.6077   16.4834 H   0  0  0  0  0  0  0  0  0  0  0  0
  -19.4497   25.7133   18.8496 H   0  0  0  0  0  0  0  0  0  0  0  0
  -17.8196   29.2331   20.5182 H   0  0  0  0  0  0  0  0  0  0  0  0
  -19.2450   28.1273   20.5367 H   0  0  0  0  0  0  0  0  0  0  0  0
  -18.2376   28.5235   22.8105 H   0  0  0  0  0  0  0  0  0  0  0  0
  -18.2567   26.7874   22.2955 H   0  0  0  0  0  0  0  0  0  0  0  0
  -16.1900   27.4060   23.2800 H   0  0  0  0  0  0  0  0  0  0  0  0
  -14.7100   26.6669   21.5703 H   0  0  0  0  0  0  0  0  0  0  0  0
  -16.2644   25.7386   21.5951 H   0  0  0  0  0  0  0  0  0  0  0  0
  -15.5062   28.0159   19.7068 H   0  0  0  0  0  0  0  0  0  0  0  0
  -15.7186   26.2714   19.2979 H   0  0  0  0  0  0  0  0  0  0  0  0
  -16.6294   28.7121   17.6588 H   0  0  0  0  0  0  0  0  0  0  0  0
  -15.9402   25.1321   13.7540 H   0  0  0  0  0  0  0  0  0  0  0  0
  -13.3253   24.6109   12.2014 H   0  0  0  0  0  0  0  0  0  0  0  0
  -13.5303   25.7085   13.5485 H   0  0  0  0  0  0  0  0  0  0  0  0
  -12.5768   23.2285   14.0026 H   0  0  0  0  0  0  0  0  0  0  0  0
  -13.7652   23.8591   15.1440 H   0  0  0  0  0  0  0  0  0  0  0  0
  -14.0598   21.7253   13.0553 H   0  0  0  0  0  0  0  0  0  0  0  0
  -15.0438   21.9821   14.5083 H   0  0  0  0  0  0  0  0  0  0  0  0
  -15.5505   22.8735   11.7348 H   0  0  0  0  0  0  0  0  0  0  0  0
  -16.6655   22.9226   13.1066 H   0  0  0  0  0  0  0  0  0  0  0  0
  1  2  1  0
  2  3  2  0
  2  4  1  0
  4  5  2  0
  5  6  1  0
  5  7  1  0
  7  8  2  0
  8  9  1  0
  9 10  2  0
 10 11  1  0
 11 12  1  0
 12 13  2  0
 13 14  1  0
 14 15  2  0
 15 16  1  0
 16 17  1  0
 17 18  1  0
 18 19  1  0
 19 20  1  0
 20 21  1  0
 15 22  1  0
 22 23  2  0
 10 24  1  0
 24 25  2  0
 25 26  1  0
 26 27  1  0
 27 28  1  0
 28 29  1  0
 29 30  1  0
 30 31  1  0
 26 32  1  0
 32 33  2  0
 32  4  1  0
 25  7  1  0
 31 27  1  0
 23 12  1  0
 21 16  1  0
  1 34  1  0
  1 35  1  0
  1 36  1  0
  6 37  1  0
  6 38  1  0
  6 39  1  0
  8 40  1  0
 11 41  1  0
 13 42  1  0
 14 43  1  0
 17 44  1  0
 17 45  1  0
 18 46  1  0
 18 47  1  0
 19 48  1  0
 20 49  1  0
 20 50  1  0
 21 51  1  0
 21 52  1  0
 22 53  1  0
 27 54  1  0
 28 55  1  0
 28 56  1  0
 29 57  1  0
 29 58  1  0
 30 59  1  0
 30 60  1  0
 31 61  1  0
 31 62  1  0
M  END
>  <meeko>  (1) 
{"is_sidechain": [false], "free_energy": -8.328, "intermolecular_energy": -9.819, "internal_energy": -1.142}

$$$$
6QH4_Palbociclib_out
     RDKit          3D

 62 66  0  0  0  0  0  0  0  0999 V2000
  -14.5890   24.0500    5.9850 C   0  0  0  0  0  0  0  0  0  0  0  0
  -14.7620   25.5150    6.2640 C   0  0  0  0  0  0  0  0  0  0  0  0
  -14.2240   26.3800    5.5790 O   0  0  0  0  0  0  0  0  0  0  0  0
  -15.6060   25.8980    7.4140 C   0  0  0  0  0  0  0  0  0  0  0  0
  -16.7610   26.5710    7.2320 C   0  0  0  0  0  0  0  0  0  0  0  0
  -17.3510   26.9510    5.8930 C   0  0  0  0  0  0  0  0  0  0  0  0
  -17.5440   26.9700    8.4240 C   0  0  0  0  0  0  0  0  0  0  0  0
  -18.7270   27.7060    8.3690 C   0  0  0  0  0  0  0  0  0  0  0  0
  -19.4580   28.0770    9.4410 N   0  0  0  0  0  0  0  0  0  0  0  0
  -18.9620   27.6830   10.6190 C   0  0  0  0  0  0  0  0  0  0  0  0
  -19.6930   28.0450   11.7710 N   0  0  0  0  0  0  0  0  0  0  0  0
  -19.4550   27.8620   13.1460 C   0  0  0  0  0  0  0  0  0  0  0  0
  -18.3240   27.1430   13.5130 C   0  0  0  0  0  0  0  0  0  0  0  0
  -18.0740   26.9530   14.8670 C   0  0  0  0  0  0  0  0  0  0  0  0
  -18.9510   27.4800   15.8100 C   0  0  0  0  0  0  0  0  0  0  0  0
  -18.7270   27.3050   17.1800 N   0  0  0  0  0  0  0  0  0  0  0  0
  -17.3950   27.5640   17.7380 C   0  0  0  0  0  0  0  0  0  0  0  0
  -17.4820   27.8040   19.2450 C   0  0  0  0  0  0  0  0  0  0  0  0
  -18.1830   26.7120   19.9200 N   0  0  0  0  0  0  0  0  0  0  0  0
  -19.5410   26.5830   19.3910 C   0  0  0  0  0  0  0  0  0  0  0  0
  -19.5290   26.2980   17.8890 C   0  0  0  0  0  0  0  0  0  0  0  0
  -20.0530   28.1830   15.3500 C   0  0  0  0  0  0  0  0  0  0  0  0
  -20.3270   28.3880   14.0420 N   0  0  0  0  0  0  0  0  0  0  0  0
  -17.8350   26.9790   10.8160 N   0  0  0  0  0  0  0  0  0  0  0  0
  -17.1320   26.6310    9.7060 C   0  0  0  0  0  0  0  0  0  0  0  0
  -15.9250   25.8960    9.8660 N   0  0  0  0  0  0  0  0  0  0  0  0
  -15.5310   25.5610   11.2040 C   0  0  0  0  0  0  0  0  0  0  0  0
  -14.1050   25.9830   11.5260 C   0  0  0  0  0  0  0  0  0  0  0  0
  -13.7870   25.1760   12.7740 C   0  0  0  0  0  0  0  0  0  0  0  0
  -14.4870   23.8360   12.5660 C   0  0  0  0  0  0  0  0  0  0  0  0
  -15.5200   24.0560   11.4600 C   0  0  0  0  0  0  0  0  0  0  0  0
  -15.1330   25.5180    8.7900 C   0  0  0  0  0  0  0  0  0  0  0  0
  -14.0770   24.8920    8.9050 O   0  0  0  0  0  0  0  0  0  0  0  0
  -14.5241   23.5008    6.9359 H   0  0  0  0  0  0  0  0  0  0  0  0
  -15.4500   23.6826    5.4073 H   0  0  0  0  0  0  0  0  0  0  0  0
  -13.6661   23.8932    5.4073 H   0  0  0  0  0  0  0  0  0  0  0  0
  -18.2664   27.5406    6.0497 H   0  0  0  0  0  0  0  0  0  0  0  0
  -16.6216   27.5496    5.3275 H   0  0  0  0  0  0  0  0  0  0  0  0
  -17.5943   26.0394    5.3275 H   0  0  0  0  0  0  0  0  0  0  0  0
  -19.0923   28.0072    7.3761 H   0  0  0  0  0  0  0  0  0  0  0  0
  -20.5550   28.5310   11.5460 H   0  0  0  0  0  0  0  0  0  0  0  0
  -17.6437   26.7345   12.7512 H   0  0  0  0  0  0  0  0  0  0  0  0
  -17.1872   26.3888   15.1915 H   0  0  0  0  0  0  0  0  0  0  0  0
  -16.7475   26.6955   17.5468 H   0  0  0  0  0  0  0  0  0  0  0  0
  -16.9775   28.4618   17.2588 H   0  0  0  0  0  0  0  0  0  0  0  0
  -16.4640   27.8827   19.6542 H   0  0  0  0  0  0  0  0  0  0  0  0
  -18.0443   28.7339   19.4154 H   0  0  0  0  0  0  0  0  0  0  0  0
  -18.2300   26.9090   20.9190 H   0  0  0  0  0  0  0  0  0  0  0  0
  -20.0497   25.7562   19.9083 H   0  0  0  0  0  0  0  0  0  0  0  0
  -20.0701   27.5326   19.5593 H   0  0  0  0  0  0  0  0  0  0  0  0
  -19.0969   25.3018   17.7131 H   0  0  0  0  0  0  0  0  0  0  0  0
  -20.5616   26.3357   17.5117 H   0  0  0  0  0  0  0  0  0  0  0  0
  -20.7473   28.5997   16.0945 H   0  0  0  0  0  0  0  0  0  0  0  0
  -16.2750   26.0886   11.8188 H   0  0  0  0  0  0  0  0  0  0  0  0
  -13.4209   25.7265   10.7037 H   0  0  0  0  0  0  0  0  0  0  0  0
  -13.9945   27.0679   11.6698 H   0  0  0  0  0  0  0  0  0  0  0  0
  -12.7011   25.0333   12.8760 H   0  0  0  0  0  0  0  0  0  0  0  0
  -14.1254   25.6814   13.6905 H   0  0  0  0  0  0  0  0  0  0  0  0
  -13.7592   23.0700   12.2600 H   0  0  0  0  0  0  0  0  0  0  0  0
  -14.9640   23.4869   13.4937 H   0  0  0  0  0  0  0  0  0  0  0  0
  -15.2286   23.5133   10.5486 H   0  0  0  0  0  0  0  0  0  0  0  0
  -16.5138   23.6847   11.7507 H   0  0  0  0  0  0  0  0  0  0  0  0
  1  2  1  0
  2  3  2  0
  2  4  1  0
  4  5  2  0
  5  6  1  0
  5  7  1  0
  7  8  2  0
  8  9  1  0
  9 10  2  0
 10 11  1  0
 11 12  1  0
 12 13  2  0
 13 14  1  0
 14 15  2  0
 15 16  1  0
 16 17  1  0
 17 18  1  0
 18 19  1  0
 19 20  1  0
 20 21  1  0
 15 22  1  0
 22 23  2  0
 10 24  1  0
 24 25  2  0
 25 26  1  0
 26 27  1  0
 27 28  1  0
 28 29  1  0
 29 30  1  0
 30 31  1  0
 26 32  1  0
 32 33  2  0
 32  4  1  0
 25  7  1  0
 31 27  1  0
 23 12  1  0
 21 16  1  0
  1 34  1  0
  1 35  1  0
  1 36  1  0
  6 37  1  0
  6 38  1  0
  6 39  1  0
  8 40  1  0
 11 41  1  0
 13 42  1  0
 14 43  1  0
 17 44  1  0
 17 45  1  0
 18 46  1  0
 18 47  1  0
 19 48  1  0
 20 49  1  0
 20 50  1  0
 21 51  1  0
 21 52  1  0
 22 53  1  0
 27 54  1  0
 28 55  1  0
 28 56  1  0
 29 57  1  0
 29 58  1  0
 30 59  1  0
 30 60  1  0
 31 61  1  0
 31 62  1  0
M  END
>  <meeko>  (2) 
{"is_sidechain": [false], "free_energy": -5.534, "intermolecular_energy": -7.025, "internal_energy": -1.211}

$$$$
