MODEL 1
REMARK VINA RESULT:    -8.328      0.000      0.000
REMARK INTER + INTRA:         -10.961
REMARK INTER:                  -9.819
REMARK INTRA:                  -1.142
REMARK CONF_INDEPENDENT:        1.492
REMARK UNBOUND:                -1.142
REMARK SMILES CC(=O)c1c(C)c2cnc(Nc3ccc(N4CCNCC4)cn3)nc2n(C2CCCC2)c1=O
REMARK SMILES IDX 11 1 10 3 32 4 26 5 4 6 25 7 5 8 24 9 7 10 8 11 9 12 33 13
REMARK SMILES IDX 6 14 27 15 28 16 31 17 29 18 30 19 2 20 3 21 1 22 12 23
REMARK SMILES IDX 23 24 13 25 22 26 14 27 15 28 16 29 17 30 21 31 18 32 20 33
REMARK SMILES IDX 19 34
REMARK H PARENT 11 2 19 35
ROOT
ATOM      1  N   UNL     1     -19.341  27.048  14.499  1.00  0.00    -0.309 N 
ATOM      2  H   UNL     1     -20.350  26.995  14.409  1.00  0.00     0.171 HD
ENDROOT
BRANCH   1   3
ATOM      3  C   UNL     1     -18.686  27.032  13.248  1.00  0.00     0.230 A 
ATOM      4  C   UNL     1     -15.090  25.376  10.600  1.00  0.00     0.263 A 
ATOM      5  N   UNL     1     -15.806  25.434  11.788  1.00  0.00    -0.289 N 
ATOM      6  C   UNL     1     -15.598  26.191   9.444  1.00  0.00     0.086 A 
ATOM      7  C   UNL     1     -16.970  26.236  11.941  1.00  0.00     0.148 A 
ATOM      8  C   UNL     1     -16.715  26.939   9.553  1.00  0.00    -0.022 A 
ATOM      9  N   UNL     1     -17.599  26.250  13.145  1.00  0.00    -0.194 NA
ATOM     10  C   UNL     1     -17.417  26.980  10.856  1.00  0.00     0.040 A 
ATOM     11  C   UNL     1     -18.552  27.750  11.106  1.00  0.00     0.127 A 
ATOM     12  N   UNL     1     -19.209  27.799  12.284  1.00  0.00    -0.221 NA
ATOM     13  O   UNL     1     -14.071  24.697  10.449  1.00  0.00    -0.268 OA
ATOM     14  C   UNL     1     -17.339  27.748   8.438  1.00  0.00     0.046 C 
BRANCH   5  15
ATOM     15  C   UNL     1     -15.374  24.677  12.928  1.00  0.00     0.092 C 
ATOM     16  C   UNL     1     -13.870  24.742  13.148  1.00  0.00     0.025 C 
ATOM     17  C   UNL     1     -15.646  23.183  12.786  1.00  0.00     0.025 C 
ATOM     18  C   UNL     1     -13.616  23.578  14.091  1.00  0.00     0.002 C 
ATOM     19  C   UNL     1     -14.588  22.489  13.645  1.00  0.00     0.002 C 
ENDBRANCH   5  15
BRANCH   6  20
ATOM     20  C   UNL     1     -14.833  26.149   8.181  1.00  0.00     0.165 C 
ATOM     21  O   UNL     1     -14.246  27.151   7.783  1.00  0.00    -0.294 OA
ATOM     22  C   UNL     1     -14.800  24.850   7.429  1.00  0.00     0.094 C 
ENDBRANCH   6  20
ENDBRANCH   1   3
BRANCH   1  23
ATOM     23  C   UNL     1     -18.865  27.122  15.822  1.00  0.00     0.132 A 
ATOM     24  N   UNL     1     -17.860  27.986  16.114  1.00  0.00    -0.237 NA
ATOM     25  C   UNL     1     -19.459  26.294  16.766  1.00  0.00     0.049 A 
ATOM     26  C   UNL     1     -17.442  28.018  17.398  1.00  0.00     0.139 A 
ATOM     27  C   UNL     1     -19.001  26.355  18.077  1.00  0.00     0.031 A 
ATOM     28  C   UNL     1     -17.973  27.231  18.407  1.00  0.00     0.055 A 
BRANCH  28  29
ATOM     29  N   UNL     1     -17.491  27.316  19.719  1.00  0.00    -0.368 N 
ATOM     30  C   UNL     1     -18.157  28.199  20.682  1.00  0.00     0.132 C 
ATOM     31  C   UNL     1     -16.057  27.094  19.945  1.00  0.00     0.132 C 
ATOM     32  C   UNL     1     -17.821  27.781  22.114  1.00  0.00     0.102 C 
ATOM     33  C   UNL     1     -15.796  26.715  21.402  1.00  0.00     0.102 C 
ATOM     34  N   UNL     1     -16.377  27.694  22.320  1.00  0.00    -0.313 NA
ATOM     35  H   UNL     1     -16.190  27.406  23.280  1.00  0.00     0.122 HD
ENDBRANCH  28  29
ENDBRANCH   1  23
TORSDOF 5
ENDMDL
MODEL 2
REMARK VINA RESULT:    -5.534      1.563      2.685
REMARK INTER + INTRA:          -8.236
REMARK INTER:                  -7.025
REMARK INTRA:                  -1.211
REMARK CONF_INDEPENDENT:        1.492
REMARK UNBOUND:                -1.211
REMARK SMILES CC(=O)c1c(C)c2cnc(Nc3ccc(N4CCNCC4)cn3)nc2n(C2CCCC2)c1=O
REMARK SMILES IDX 11 1 10 3 32 4 26 5 4 6 25 7 5 8 24 9 7 10 8 11 9 12 33 13
REMARK SMILES IDX 6 14 27 15 28 16 31 17 29 18 30 19 2 20 3 21 1 22 12 23
REMARK SMILES IDX 23 24 13 25 22 26 14 27 15 28 16 29 17 30 21 31 18 32 20 33
REMARK SMILES IDX 19 34
REMARK H PARENT 11 2 19 35
ROOT
ATOM      1  N   UNL     1     -19.693  28.045  11.771  1.00  0.00    -0.309 N 
ATOM      2  H   UNL     1     -20.555  28.531  11.546  1.00  0.00     0.171 HD
ENDROOT
BRANCH   1   3
ATOM      3  C   UNL     1     -18.962  27.683  10.619  1.00  0.00     0.230 A 
ATOM      4  C   UNL     1     -15.133  25.518   8.790  1.00  0.00     0.263 A 
ATOM      5  N   UNL     1     -15.925  25.896   9.866  1.00  0.00    -0.289 N 
ATOM      6  C   UNL     1     -15.606  25.898   7.414  1.00  0.00     0.086 A 
ATOM      7  C   UNL     1     -17.132  26.631   9.706  1.00  0.00     0.148 A 
ATOM      8  C   UNL     1     -16.761  26.571   7.232  1.00  0.00    -0.022 A 
ATOM      9  N   UNL     1     -17.835  26.979  10.816  1.00  0.00    -0.194 NA
ATOM     10  C   UNL     1     -17.544  26.970   8.424  1.00  0.00     0.040 A 
ATOM     11  C   UNL     1     -18.727  27.706   8.369  1.00  0.00     0.127 A 
ATOM     12  N   UNL     1     -19.458  28.077   9.441  1.00  0.00    -0.221 NA
ATOM     13  O   UNL     1     -14.077  24.892   8.905  1.00  0.00    -0.268 OA
ATOM     14  C   UNL     1     -17.351  26.951   5.893  1.00  0.00     0.046 C 
BRANCH   5  15
ATOM     15  C   UNL     1     -15.531  25.561  11.204  1.00  0.00     0.092 C 
ATOM     16  C   UNL     1     -14.105  25.983  11.526  1.00  0.00     0.025 C 
ATOM     17  C   UNL     1     -15.520  24.056  11.460  1.00  0.00     0.025 C 
ATOM     18  C   UNL     1     -13.787  25.176  12.774  1.00  0.00     0.002 C 
ATOM     19  C   UNL     1     -14.487  23.836  12.566  1.00  0.00     0.002 C 
ENDBRANCH   5  15
BRANCH   6  20
ATOM     20  C   UNL     1     -14.762  25.515   6.264  1.00  0.00     0.165 C 
ATOM     21  O   UNL     1     -14.224  26.380   5.579  1.00  0.00    -0.294 OA
ATOM     22  C   UNL     1     -14.589  24.050   5.985  1.00  0.00     0.094 C 
ENDBRANCH   6  20
ENDBRANCH   1   3
BRANCH   1  23
ATOM     23  C   UNL     1     -19.455  27.862  13.146  1.00  0.00     0.132 A 
ATOM     24  N   UNL     1     -20.327  28.388  14.042  1.00  0.00    -0.237 NA
ATOM     25  C   UNL     1     -18.324  27.143  13.513  1.00  0.00     0.049 A 
ATOM     26  C   UNL     1     -20.053  28.183  15.350  1.00  0.00     0.139 A 
ATOM     27  C   UNL     1     -18.074  26.953  14.867  1.00  0.00     0.031 A 
ATOM     28  C   UNL     1     -18.951  27.480  15.810  1.00  0.00     0.055 A 
BRANCH  28  29
ATOM     29  N   UNL     1     -18.727  27.305  17.180  1.00  0.00    -0.368 N 
ATOM     30  C   UNL     1     -17.395  27.564  17.738  1.00  0.00     0.132 C 
ATOM     31  C   UNL     1     -19.529  26.298  17.889  1.00  0.00     0.132 C 
ATOM     32  C   UNL     1     -17.482  27.804  19.245  1.00  0.00     0.102 C 
ATOM     33  C   UNL     1     -19.541  26.583  19.391  1.00  0.00     0.102 C 
ATOM     34  N   UNL     1     -18.183  26.712  19.920  1.00  0.00    -0.313 NA
ATOM     35  H   UNL     1     -18.230  26.909  20.919  1.00  0.00     0.122 HD
ENDBRANCH  28  29
ENDBRANCH   1  23
TORSDOF 5
ENDMDL
